Examples/InverterModels/PVSystem2/InvControl2/MonitoredVoltage/Mon_voltage_average_difVBase_VLN_Node.Txt

LINE-GROUND and LINE-LINE VOLTAGES BY BUS & NODE

Bus  Node    VLN (kV)   Angle      pu     Base kV    Node-Node   VLL (kV)  Angle      pu

A .. 1       8.1501 /_    9.3    1.0229    13.800        1-2      14.12 /_   39.3    1.0232
   - 2       8.1584 /_ -110.6     1.024    13.800        2-3     14.121 /_  -80.6    1.0233
   - 3       8.1517 /_  129.4    1.0231    13.800        3-1     14.125 /_  159.4    1.0236
B .. 1       8.1702 /_   12.3    1.0254    13.800        1-2     14.118 /_   42.0    1.0231
   - 2        8.108 /_ -108.0    1.0176    13.800        2-3     13.994 /_  -77.9    1.0141
   - 3       8.0769 /_  132.3    1.0137    13.800        3-1     14.072 /_  162.5    1.0197
C .. 1      0.28508 /_   12.4    1.0287     0.480        1-2    0.49263 /_   42.1    1.0263
   - 2      0.28292 /_ -107.9    1.0209     0.480        2-3    0.48832 /_  -77.8    1.0173
   - 3      0.28184 /_  132.4     1.017     0.480        3-1    0.49103 /_  162.6     1.023
